[General]

network = Network
sim-time-limit = 200s
repeat = 10
seed-set = ${repetition}

[Config Caso1]
description = Simulacion con trafico desde el nodo 0 y el nodo 2 hacia el nodo 5

Network.node[0].app.interArrivalTime = exponential(1)
Network.node[0].app.packetByteSize = 125000
Network.node[0].app.destination = 5

Network.node[2].app.interArrivalTime = exponential(1)
Network.node[2].app.packetByteSize = 125000
Network.node[2].app.destination = 5


[Config Caso2]
description = Simulacion con trafico desde multiples nodos hacia el nodo 5

Network.node[{0,1,2,3,4,6,7}].app.interArrivalTime = exponential(1)
Network.node[{0,1,2,3,4,6,7}].app.packetByteSize = 125000
Network.node[{0,1,2,3,4,6,7}].app.destination = 5